Version 4
SHEET 1 1032 728
WIRE 432 -208 352 -208
WIRE 560 -208 512 -208
WIRE 624 -208 560 -208
WIRE 768 -208 704 -208
WIRE 960 -208 768 -208
WIRE 352 -144 352 -208
WIRE 560 -128 560 -208
WIRE 768 -128 768 -208
WIRE 960 -112 960 -208
WIRE 352 32 352 -64
WIRE 560 32 560 -48
WIRE 560 32 352 32
WIRE 672 32 560 32
WIRE 768 32 768 -48
WIRE 768 32 672 32
WIRE 960 32 960 -32
WIRE 960 32 768 32
WIRE -544 48 -624 48
WIRE -416 48 -464 48
WIRE -352 48 -416 48
WIRE -208 48 -272 48
WIRE -16 48 -208 48
WIRE -16 64 -16 48
WIRE 672 64 672 32
WIRE -624 112 -624 48
WIRE -416 128 -416 48
WIRE -208 128 -208 48
WIRE -16 176 -16 144
WIRE 560 256 368 256
WIRE 640 256 560 256
WIRE 784 256 720 256
WIRE 976 256 784 256
WIRE 976 272 976 256
WIRE -624 288 -624 192
WIRE -416 288 -416 208
WIRE -416 288 -624 288
WIRE -304 288 -416 288
WIRE -208 288 -208 208
WIRE -208 288 -304 288
WIRE -16 288 -16 256
WIRE -16 288 -208 288
WIRE -304 320 -304 288
WIRE 368 336 368 256
WIRE 560 336 560 256
WIRE 784 336 784 256
WIRE 976 384 976 352
WIRE 368 496 368 416
WIRE 560 496 560 416
WIRE 560 496 368 496
WIRE 688 496 560 496
WIRE 784 496 784 416
WIRE 784 496 688 496
WIRE 976 496 976 464
WIRE 976 496 784 496
WIRE 688 528 688 496
FLAG 672 64 0
FLAG -304 320 0
FLAG 688 528 0
DATAFLAG -416 48 ""
DATAFLAG -208 48 ""
DATAFLAG 560 -208 ""
DATAFLAG 768 -208 ""
DATAFLAG 560 256 ""
DATAFLAG 784 256 ""
SYMBOL res 528 -224 R90
WINDOW 0 0 56 VBottom 2
WINDOW 3 32 56 VTop 2
SYMATTR InstName R1_s1
SYMATTR Value 4.62k
SYMBOL res 576 -32 R180
WINDOW 0 36 76 Left 2
WINDOW 3 36 40 Left 2
SYMATTR InstName R3_s1
SYMATTR Value 9.65k
SYMBOL voltage 352 -160 R0
WINDOW 0 -29 22 Right 2
WINDOW 3 -15 99 Right 2
SYMATTR InstName V1
SYMATTR Value 11.91
SYMBOL res 720 -224 R90
WINDOW 0 -14 56 VCenter 2
WINDOW 3 32 56 VTop 2
SYMATTR InstName R4_s1
SYMATTR Value 19.62k
SYMBOL res 784 -32 R180
WINDOW 0 36 76 Left 2
WINDOW 3 36 40 Left 2
SYMATTR InstName R5_s1
SYMATTR Value 35.7k
SYMBOL res 976 -16 R180
WINDOW 0 36 76 Left 2
WINDOW 3 36 40 Left 2
SYMATTR InstName R2_s1
SYMATTR Value 6.44k
SYMBOL res -448 32 R90
WINDOW 0 0 56 VBottom 2
WINDOW 3 32 56 VTop 2
SYMATTR InstName R1_s12
SYMATTR Value 4.62k
SYMBOL res -400 224 R180
WINDOW 0 36 76 Left 2
WINDOW 3 36 40 Left 2
SYMATTR InstName R3_s12
SYMATTR Value 9.65k
SYMBOL voltage -624 96 R0
WINDOW 0 -43 36 Right 2
WINDOW 3 -41 81 Right 2
SYMATTR InstName V1_s12
SYMATTR Value 11.91
SYMBOL res -256 32 R90
WINDOW 0 0 56 VBottom 2
WINDOW 3 32 56 VTop 2
SYMATTR InstName R4_s12
SYMATTR Value 19.62k
SYMBOL res -192 224 R180
WINDOW 0 36 76 Left 2
WINDOW 3 36 40 Left 2
SYMATTR InstName R5_s12
SYMATTR Value 35.7k
SYMBOL res 0 160 R180
WINDOW 0 36 76 Left 2
WINDOW 3 36 40 Left 2
SYMATTR InstName R2_s12
SYMATTR Value 6.44k
SYMBOL voltage -16 160 R0
SYMATTR InstName V2_s12
SYMATTR Value 15
SYMBOL res 384 432 R180
WINDOW 0 36 76 Left 2
WINDOW 3 36 40 Left 2
SYMATTR InstName R1_s2
SYMATTR Value 4.62k
SYMBOL res 576 432 R180
WINDOW 0 36 76 Left 2
WINDOW 3 36 40 Left 2
SYMATTR InstName R3_s2
SYMATTR Value 9.65k
SYMBOL res 736 240 R90
WINDOW 0 0 56 VBottom 2
WINDOW 3 32 56 VTop 2
SYMATTR InstName R4_s2
SYMATTR Value 19.62k
SYMBOL res 800 432 R180
WINDOW 0 36 76 Left 2
WINDOW 3 36 40 Left 2
SYMATTR InstName R5_s2
SYMATTR Value 35.7k
SYMBOL res 992 368 R180
WINDOW 0 36 76 Left 2
WINDOW 3 36 40 Left 2
SYMATTR InstName R2_s2
SYMATTR Value 6.44k
SYMBOL voltage 976 368 R0
SYMATTR InstName V2
SYMATTR Value 15
TEXT -752 552 Left 2 !.op
TEXT -568 -128 Left 4 ;Superposition: Circuit 2
TEXT 816 64 Left 2 ;V_2 = 0 V
TEXT 320 528 Left 2 ;V_1 = 0 V
