Version 4
SHEET 1 880 680
WIRE -96 48 -336 48
WIRE 16 48 -16 48
WIRE 48 48 16 48
WIRE 192 48 128 48
WIRE 400 48 192 48
WIRE 640 48 480 48
WIRE 640 80 640 48
WIRE -336 128 -336 48
WIRE 192 160 192 48
WIRE 304 160 192 160
WIRE 640 192 640 160
WIRE 16 208 16 48
WIRE 192 208 192 160
WIRE 640 224 640 192
WIRE 304 240 304 160
WIRE -336 384 -336 208
WIRE 16 384 16 288
WIRE 16 384 -336 384
WIRE 192 384 192 288
WIRE 192 384 16 384
WIRE 304 384 304 320
WIRE 304 384 192 384
WIRE 640 384 640 304
WIRE 640 384 304 384
WIRE -336 416 -336 384
FLAG -336 416 0
FLAG -336 48 A
FLAG 16 48 B
FLAG 192 48 C
FLAG 640 48 D
FLAG -336 384 F
FLAG 640 192 E
SYMBOL res 0 32 R90
WINDOW 0 0 56 VBottom 2
WINDOW 3 32 56 VTop 2
SYMATTR InstName R1
SYMATTR Value 970
SYMBOL res 32 64 R270
WINDOW 0 32 56 VTop 2
WINDOW 3 0 56 VBottom 2
SYMATTR InstName R3
SYMATTR Value 118
SYMBOL res 656 176 R180
WINDOW 0 36 76 Left 2
WINDOW 3 36 40 Left 2
SYMATTR InstName R7
SYMATTR Value 977
SYMBOL res 656 320 R180
WINDOW 0 36 76 Left 2
WINDOW 3 36 40 Left 2
SYMATTR InstName R8
SYMATTR Value 978
SYMBOL voltage -336 112 R0
SYMATTR InstName V1
SYMATTR Value 15.03
SYMBOL res 288 224 R0
SYMATTR InstName R5
SYMATTR Value 2.13k
SYMBOL res 496 32 R90
WINDOW 0 0 56 VBottom 2
WINDOW 3 32 56 VTop 2
SYMATTR InstName R6
SYMATTR Value 2.64k
SYMBOL res 176 192 R0
SYMATTR InstName R4
SYMATTR Value 98.6k
SYMBOL res 0 192 R0
SYMATTR InstName R2
SYMATTR Value 9.93k
TEXT -368 440 Left 2 !.op
TEXT 48 -40 Left 2 ;5.4 Post LAB Task
