Version 4
SHEET 1 1076 680
WIRE 48 96 0 96
WIRE 160 96 160 32
WIRE 160 96 128 96
WIRE 192 96 160 96
WIRE 320 96 320 32
WIRE 320 96 272 96
WIRE 352 96 320 96
WIRE 464 96 432 96
WIRE 512 96 464 96
WIRE 816 128 672 128
WIRE 464 144 464 96
WIRE -288 160 -288 112
WIRE 0 224 0 96
WIRE 672 224 672 128
WIRE 720 224 672 224
WIRE 816 240 816 128
WIRE 816 240 784 240
WIRE 864 240 816 240
WIRE -288 256 -288 240
WIRE -288 256 -400 256
WIRE 464 256 464 224
WIRE 512 256 464 256
WIRE 720 256 608 256
WIRE -288 272 -288 256
WIRE 464 288 464 256
WIRE -400 304 -400 256
WIRE -288 400 -288 352
WIRE 0 400 0 304
WIRE 464 400 464 368
WIRE 464 400 0 400
WIRE 0 448 0 400
FLAG 0 448 0
FLAG -288 112 V++
FLAG -288 400 V--
FLAG 752 208 V++
FLAG 752 272 V--
FLAG 608 256 c
FLAG 512 256 a
FLAG 512 96 b
FLAG 320 32 c
FLAG 160 32 d
FLAG -400 304 0
DATAFLAG 864 240 ""
SYMBOL res 144 80 R90
WINDOW 0 0 56 VBottom 2
WINDOW 3 32 56 VTop 2
SYMATTR InstName R1
SYMATTR Value 6.76k
SYMBOL res 288 80 R90
WINDOW 0 0 56 VBottom 2
WINDOW 3 32 56 VTop 2
SYMATTR InstName R2
SYMATTR Value 3.02k
SYMBOL res 448 80 R90
WINDOW 0 0 56 VBottom 2
WINDOW 3 32 56 VTop 2
SYMATTR InstName R3
SYMATTR Value 987
SYMBOL res 480 240 R180
WINDOW 0 36 76 Left 2
WINDOW 3 36 40 Left 2
SYMATTR InstName R4
SYMATTR Value 993
SYMBOL res 480 384 R180
WINDOW 0 36 76 Left 2
WINDOW 3 36 40 Left 2
SYMATTR InstName R5
SYMATTR Value 982
SYMBOL voltage 0 208 R0
SYMATTR InstName V1
SYMATTR Value 12
SYMBOL OpAmps\\UniversalOpAmp 752 240 R0
SYMATTR InstName U1
SYMBOL voltage -288 144 R0
SYMATTR InstName +Vcc
SYMATTR Value 12
SYMBOL voltage -288 256 R0
SYMATTR InstName -Vcc
SYMATTR Value 12
TEXT -320 488 Left 2 !.op
