Version 4
SHEET 1 880 680
WIRE 32 80 -112 80
WIRE 176 80 112 80
WIRE 304 80 176 80
WIRE 416 80 304 80
WIRE -112 144 -112 80
WIRE 176 144 176 80
WIRE 304 144 304 80
WIRE 416 144 416 80
WIRE -112 288 -112 224
WIRE 176 288 176 224
WIRE 176 288 -112 288
WIRE 304 288 304 224
WIRE 304 288 176 288
WIRE 416 288 416 224
WIRE 416 288 304 288
WIRE 176 304 176 288
FLAG 176 304 0
FLAG -112 80 A
FLAG 304 80 B
FLAG 176 288 G
SYMBOL res 128 64 R90
WINDOW 0 0 56 VBottom 2
WINDOW 3 32 56 VTop 2
SYMATTR InstName R1
SYMATTR Value 989
SYMBOL res 192 240 R180
WINDOW 0 36 76 Left 2
WINDOW 3 36 40 Left 2
SYMATTR InstName R2
SYMATTR Value 460K
SYMBOL res 320 240 R180
WINDOW 0 36 76 Left 2
WINDOW 3 36 40 Left 2
SYMATTR InstName R3
SYMATTR Value 546
SYMBOL res 432 240 R180
WINDOW 0 36 76 Left 2
WINDOW 3 36 40 Left 2
SYMATTR InstName R4
SYMATTR Value 1196
SYMBOL voltage -112 128 R0
WINDOW 123 0 0 Left 0
WINDOW 39 0 0 Left 0
SYMATTR InstName V1
SYMATTR Value 10
TEXT -144 336 Left 2 !.op
TEXT 64 16 Left 2 ;5.3.1 Task 1
