Version 4
SHEET 1 880 680
WIRE 160 -64 -224 -64
WIRE 160 -32 160 -64
WIRE -432 32 -432 -48
WIRE -32 96 -128 96
WIRE 160 96 160 48
WIRE 160 96 48 96
WIRE 240 96 160 96
WIRE 416 112 304 112
WIRE 496 112 416 112
WIRE 576 112 496 112
WIRE 240 128 208 128
WIRE -432 160 -432 112
WIRE -432 160 -528 160
WIRE -128 160 -128 96
WIRE -432 192 -432 160
WIRE 496 192 496 112
WIRE -528 224 -528 160
WIRE 80 256 16 256
WIRE 208 256 208 128
WIRE 208 256 160 256
WIRE 288 256 208 256
WIRE 416 256 416 112
WIRE 416 256 368 256
WIRE 16 288 16 256
WIRE -224 304 -224 -64
WIRE -176 304 -224 304
WIRE -128 304 -128 240
WIRE -128 304 -176 304
WIRE -176 336 -176 304
WIRE -432 352 -432 272
WIRE 16 400 16 368
WIRE 496 400 496 272
FLAG -528 224 0
FLAG -432 -48 V++
FLAG -432 352 V--
FLAG 272 80 V--
FLAG 272 144 V++
FLAG 16 400 0
FLAG -128 96 V_in2
FLAG 16 256 V_in1
FLAG 496 400 0
FLAG 576 112 V_out
FLAG -176 336 0
DATAFLAG 496 112 ""
DATAFLAG -128 144 ""
DATAFLAG 16 272 ""
SYMBOL OpAmps\\UniversalOpAmp2 272 112 M180
SYMATTR InstName U1
SYMBOL res 64 80 R90
WINDOW 0 0 56 VBottom 2
WINDOW 3 32 56 VTop 2
SYMATTR InstName R2
SYMATTR Value 467
SYMBOL res 64 272 R270
WINDOW 0 32 56 VTop 2
WINDOW 3 0 56 VBottom 2
SYMATTR InstName R5
SYMATTR Value 984
SYMBOL res 272 272 R270
WINDOW 0 32 56 VTop 2
WINDOW 3 0 56 VBottom 2
SYMATTR InstName R8
SYMATTR Value 986
SYMBOL res 480 176 R0
SYMATTR InstName R1
SYMATTR Value 989
SYMBOL voltage 16 272 R0
SYMATTR InstName V6
SYMATTR Value 5
SYMBOL voltage -128 144 R0
SYMATTR InstName V5
SYMATTR Value 9
SYMBOL voltage -432 16 R0
SYMATTR InstName +Vcc
SYMATTR Value 12
SYMBOL voltage -432 176 R0
SYMATTR InstName -Vcc
SYMATTR Value 12
SYMBOL res 144 -48 R0
SYMATTR InstName R7
SYMATTR Value 469
TEXT -536 456 Left 2 !.op
TEXT 296 -32 Left 2 ;Subtractor Circuit
