Version 4
SHEET 1 880 680
WIRE 32 64 -96 64
WIRE 176 64 112 64
WIRE 224 64 176 64
WIRE 384 64 304 64
WIRE 432 64 384 64
WIRE 624 64 512 64
WIRE -96 144 -96 64
WIRE 176 144 176 64
WIRE 384 144 384 64
WIRE 624 144 624 64
WIRE -96 288 -96 224
WIRE 176 288 176 224
WIRE 176 288 -96 288
WIRE 272 288 176 288
WIRE 384 288 384 224
WIRE 384 288 272 288
WIRE 624 288 624 224
WIRE 624 288 384 288
WIRE 272 304 272 288
FLAG 272 304 0
FLAG -96 64 A
FLAG 176 64 B
FLAG 384 64 C
FLAG 624 64 D
FLAG 272 288 G
SYMBOL res 128 48 R90
WINDOW 0 0 56 VBottom 2
WINDOW 3 32 56 VTop 2
SYMATTR InstName R1
SYMATTR Value 461
SYMBOL res 192 240 R180
WINDOW 0 36 76 Left 2
WINDOW 3 36 40 Left 2
SYMATTR InstName R2
SYMATTR Value 9.6k
SYMBOL res 208 80 R270
WINDOW 0 32 56 VTop 2
WINDOW 3 0 56 VBottom 2
SYMATTR InstName R3
SYMATTR Value 15.26k
SYMBOL res 368 128 R0
SYMATTR InstName R4
SYMATTR Value 9.75k
SYMBOL res 528 48 R90
WINDOW 0 0 56 VBottom 2
WINDOW 3 32 56 VTop 2
SYMATTR InstName R5
SYMATTR Value 2.65k
SYMBOL res 640 240 R180
WINDOW 0 36 76 Left 2
WINDOW 3 36 40 Left 2
SYMATTR InstName R6
SYMATTR Value 981
SYMBOL voltage -96 128 R0
WINDOW 123 0 0 Left 0
WINDOW 39 0 0 Left 0
SYMATTR InstName V1
SYMATTR Value 16.6
TEXT -128 336 Left 2 !.op
TEXT 168 -40 Left 2 ;5.3.2 Task 2
