Version 4
SHEET 1 880 680
WIRE 48 96 -32 96
WIRE 176 96 128 96
WIRE 208 96 176 96
WIRE 336 96 288 96
WIRE 368 96 336 96
WIRE 496 96 448 96
WIRE -32 144 -32 96
WIRE -32 304 -32 224
WIRE 240 304 -32 304
WIRE 496 304 496 96
WIRE 496 304 240 304
WIRE 240 320 240 304
FLAG 240 320 0
FLAG -32 96 A
FLAG 176 96 B
FLAG 336 96 C
FLAG 496 96 D
SYMBOL res 144 80 R90
WINDOW 0 0 56 VBottom 2
WINDOW 3 32 56 VTop 2
SYMATTR InstName R1
SYMATTR Value 980
SYMBOL res 304 80 R90
WINDOW 0 0 56 VBottom 2
WINDOW 3 32 56 VTop 2
SYMATTR InstName R2
SYMATTR Value 663
SYMBOL res 464 80 R90
WINDOW 0 0 56 VBottom 2
WINDOW 3 32 56 VTop 2
SYMATTR InstName R3
SYMATTR Value 462
SYMBOL voltage -32 128 R0
WINDOW 123 0 0 Left 0
WINDOW 39 0 0 Left 0
SYMATTR InstName V1
SYMATTR Value 10.04
TEXT -64 344 Left 2 !.op
TEXT 80 16 Left 2 ;6.3 VDR - Simple Circuit
