Version 4
SHEET 1 880 680
WIRE 224 80 128 80
WIRE 384 80 304 80
WIRE 128 128 128 80
WIRE 384 128 384 80
WIRE 128 272 128 208
WIRE 384 272 384 208
WIRE 384 272 128 272
WIRE 128 288 128 272
FLAG 128 288 0
FLAG 384 80 V_L
SYMBOL voltage 128 112 R0
SYMATTR InstName V1
SYMATTR Value 10
SYMBOL res 320 64 R90
WINDOW 0 0 56 VBottom 2
WINDOW 3 32 56 VTop 2
SYMATTR InstName R1
SYMATTR Value 3.2k
SYMBOL res 400 224 R180
WINDOW 0 36 76 Left 2
WINDOW 3 36 40 Left 2
SYMATTR InstName R2
SYMATTR Value {R}
TEXT 240 320 Left 2 !.op
TEXT 248 -8 Center 2 ;Maximum Power Transfer: Circuit 1
TEXT 240 296 Left 2 !.step param R 0.01 20k 1k
