Version 4
SHEET 1 880 680
WIRE 80 144 -32 144
WIRE 224 144 160 144
WIRE 384 144 304 144
WIRE -32 208 -32 144
WIRE 384 208 384 144
WIRE -32 352 -32 288
WIRE 384 352 384 288
WIRE 384 352 -32 352
WIRE -32 384 -32 352
FLAG -32 384 0
SYMBOL res 176 128 R90
WINDOW 0 0 56 VBottom 2
WINDOW 3 32 56 VTop 2
SYMATTR InstName R1
SYMATTR Value 10k
SYMBOL res 320 128 R90
WINDOW 0 0 56 VBottom 2
WINDOW 3 32 56 VTop 2
SYMATTR InstName R2
SYMATTR Value 15k
SYMBOL res 400 304 R180
WINDOW 0 36 76 Left 2
WINDOW 3 36 40 Left 2
SYMATTR InstName R3
SYMATTR Value {R}
SYMBOL voltage -32 192 R0
SYMATTR InstName V1
SYMATTR Value 25
TEXT 264 384 Left 2 !.step param R 0.01 51.4k 1K
TEXT 264 408 Left 2 !.op
TEXT -16 56 Left 2 ;6.6 Design a Potential Divider Circuit
