Version 4
SHEET 1 880 680
WIRE 480 128 112 128
WIRE 624 144 544 144
WIRE 736 144 624 144
WIRE 768 144 736 144
WIRE 480 160 336 160
WIRE -112 208 -112 160
WIRE 112 288 112 128
WIRE 736 288 736 144
WIRE -112 320 -112 288
WIRE -112 320 -240 320
WIRE 336 320 336 160
WIRE 432 320 336 320
WIRE 624 320 624 144
WIRE 624 320 512 320
WIRE -112 352 -112 320
WIRE -240 368 -240 320
WIRE 336 384 336 320
WIRE -112 480 -112 432
WIRE 112 512 112 368
WIRE 336 512 336 464
WIRE 336 512 112 512
WIRE 736 512 736 368
WIRE 736 512 336 512
WIRE 112 544 112 512
FLAG -240 368 0
FLAG -112 160 V++
FLAG -112 480 V--
FLAG 512 112 V--
FLAG 512 176 V++
FLAG 768 144 V_out
FLAG 112 544 0
FLAG 112 128 V_in
DATAFLAG 736 144 ""
DATAFLAG 416 128 ""
SYMBOL OpAmps\\UniversalOpAmp2 512 144 M180
SYMATTR InstName U1
SYMBOL voltage -112 192 R0
SYMATTR InstName V1
SYMATTR Value 12
SYMBOL voltage -112 336 R0
SYMATTR InstName V2
SYMATTR Value 12
SYMBOL res 352 480 R180
WINDOW 0 36 76 Left 2
WINDOW 3 36 40 Left 2
SYMATTR InstName R1
SYMATTR Value 1k
SYMBOL res 416 336 R270
WINDOW 0 32 56 VTop 2
WINDOW 3 0 56 VBottom 2
SYMATTR InstName R2
SYMATTR Value 1.98k
SYMBOL voltage 112 384 R180
WINDOW 123 0 0 Left 0
WINDOW 39 0 0 Left 0
SYMATTR InstName V_s
SYMATTR Value 3
SYMBOL res 720 272 R0
SYMATTR InstName R3
SYMATTR Value 1k
TEXT -128 560 Left 2 !.op
