Version 4
SHEET 1 880 680
WIRE 336 0 256 0
WIRE 480 0 416 0
WIRE -112 80 -112 48
WIRE 64 144 48 144
WIRE 128 144 64 144
WIRE 256 144 256 0
WIRE 256 144 208 144
WIRE 304 144 256 144
WIRE 480 160 480 0
WIRE 480 160 368 160
WIRE 528 160 480 160
WIRE -112 176 -112 160
WIRE -112 176 -192 176
WIRE 304 176 256 176
WIRE -112 192 -112 176
WIRE -192 208 -192 176
WIRE 48 224 48 144
WIRE 256 240 256 176
WIRE -112 304 -112 272
WIRE 48 352 48 304
FLAG -192 208 0
FLAG -112 48 V++
FLAG -112 304 V--
FLAG 336 128 V++
FLAG 336 192 V--
FLAG 48 352 0
FLAG 256 240 0
FLAG 528 160 V_out
FLAG 64 144 V_in
SYMBOL voltage -112 64 R0
SYMATTR InstName +Vcc
SYMATTR Value 12
SYMBOL voltage -112 176 R0
SYMATTR InstName -Vcc
SYMATTR Value 12
SYMBOL res 224 128 R90
WINDOW 0 0 56 VBottom 2
WINDOW 3 32 56 VTop 2
SYMATTR InstName R1
SYMATTR Value 979
SYMBOL res 432 -16 R90
WINDOW 0 0 56 VBottom 2
WINDOW 3 32 56 VTop 2
SYMATTR InstName R2
SYMATTR Value 4.67k
SYMBOL voltage 48 208 R0
WINDOW 123 0 0 Left 0
WINDOW 39 0 0 Left 0
SYMATTR InstName V_in
SYMATTR Value SINE(0 0.5 1k)
SYMBOL OpAmps\\UniversalOpAmp2 336 160 R0
SYMATTR InstName U1
TEXT -208 376 Left 2 !.tran 5m
