Version 4
SHEET 1 880 680
WIRE 64 112 -80 112
WIRE 192 112 144 112
WIRE 240 112 192 112
WIRE 432 112 320 112
WIRE 432 176 432 112
WIRE -80 192 -80 112
WIRE -80 320 -80 272
WIRE 176 320 -80 320
WIRE 432 320 432 256
WIRE 432 320 176 320
WIRE 176 336 176 320
FLAG 176 336 0
FLAG 432 112 C
FLAG 192 112 B
FLAG -80 112 A
SYMBOL res 160 96 R90
WINDOW 0 0 56 VBottom 2
WINDOW 3 32 56 VTop 2
SYMATTR InstName R1
SYMATTR Value 1200k
SYMBOL res 336 96 R90
WINDOW 0 0 56 VBottom 2
WINDOW 3 32 56 VTop 2
SYMATTR InstName R2
SYMATTR Value 2200k
SYMBOL res 448 272 R180
WINDOW 0 36 76 Left 2
WINDOW 3 36 40 Left 2
SYMATTR InstName R3
SYMATTR Value 517.05k
SYMBOL voltage -80 176 R0
SYMATTR InstName V1
SYMATTR Value 25
TEXT -48 344 Left 2 !.op
TEXT 112 24 Left 2 ;6.5 Design
