Version 4
SHEET 1 880 680
WIRE 208 -48 160 -48
WIRE 368 -48 288 -48
WIRE -256 -16 -256 -64
WIRE -16 48 -80 48
WIRE 160 48 160 -48
WIRE 160 48 64 48
WIRE 160 96 160 48
WIRE 208 96 160 96
WIRE -256 112 -256 64
WIRE -256 112 -352 112
WIRE 368 112 368 -48
WIRE 368 112 272 112
WIRE 432 112 368 112
WIRE 208 128 80 128
WIRE -256 144 -256 112
WIRE -352 160 -352 112
WIRE 80 192 80 128
WIRE -256 272 -256 224
WIRE 320 288 304 288
WIRE -80 304 -80 48
WIRE 0 304 -80 304
WIRE 80 304 80 272
WIRE 80 304 0 304
WIRE 0 320 0 304
FLAG -256 -64 V++
FLAG -256 272 V--
FLAG -352 160 0
FLAG 432 112 V_out
FLAG 240 144 V--
FLAG 240 80 V++
FLAG 0 320 0
SYMBOL OpAmps\\UniversalOpAmp2 240 112 R0
SYMATTR InstName U1
SYMBOL voltage 80 176 R0
WINDOW 123 0 0 Left 0
WINDOW 39 0 0 Left 0
SYMATTR InstName V_s
SYMATTR Value SINE(0 2.5 5k)
SYMBOL voltage -256 128 R0
SYMATTR InstName -Vcc
SYMATTR Value 12
SYMBOL voltage -256 -32 R0
SYMATTR InstName +Vcc
SYMATTR Value 12
SYMBOL res 80 32 R90
WINDOW 0 0 56 VBottom 2
WINDOW 3 32 56 VTop 2
SYMATTR InstName R1
SYMATTR Value 984
SYMBOL res 304 -64 R90
WINDOW 0 0 56 VBottom 2
WINDOW 3 32 56 VTop 2
SYMATTR InstName R2
SYMATTR Value 986
TEXT -368 360 Left 2 !.tran 1m
