Version 4
SHEET 1 880 680
WIRE 32 48 -64 48
WIRE 160 48 112 48
WIRE 208 48 160 48
WIRE 336 48 288 48
WIRE 448 48 336 48
WIRE 688 48 528 48
WIRE 688 96 688 48
WIRE 160 144 160 48
WIRE 336 144 336 48
WIRE 448 144 336 144
WIRE -64 160 -64 48
WIRE 336 192 336 144
WIRE 448 192 448 144
WIRE 688 208 688 176
WIRE 688 240 688 208
WIRE -64 368 -64 240
WIRE 160 368 160 224
WIRE 160 368 -64 368
WIRE 336 368 336 272
WIRE 336 368 160 368
WIRE 448 368 448 272
WIRE 448 368 336 368
WIRE 688 368 688 320
WIRE 688 368 448 368
WIRE 336 400 336 368
FLAG 336 400 0
FLAG 160 48 B
FLAG 336 48 C
FLAG 688 48 D
FLAG -64 48 A
FLAG 336 368 F
FLAG 688 208 E
SYMBOL res 128 32 R90
WINDOW 0 0 56 VBottom 2
WINDOW 3 32 56 VTop 2
SYMATTR InstName R1
SYMATTR Value 970
SYMBOL res 176 240 R180
WINDOW 0 36 76 Left 2
WINDOW 3 36 40 Left 2
SYMATTR InstName R2
SYMATTR Value 9.93k
SYMBOL res 192 64 R270
WINDOW 0 32 56 VTop 2
WINDOW 3 0 56 VBottom 2
SYMATTR InstName R3
SYMATTR Value 118
SYMBOL res 320 176 R0
SYMATTR InstName R4
SYMATTR Value 98.6k
SYMBOL res 432 176 R0
SYMATTR InstName R5
SYMATTR Value 2.13k
SYMBOL res 544 32 R90
WINDOW 0 0 56 VBottom 2
WINDOW 3 32 56 VTop 2
SYMATTR InstName R6
SYMATTR Value 2.64k
SYMBOL res 704 192 R180
WINDOW 0 36 76 Left 2
WINDOW 3 36 40 Left 2
SYMATTR InstName R7
SYMATTR Value 977
SYMBOL res 704 336 R180
WINDOW 0 36 76 Left 2
WINDOW 3 36 40 Left 2
SYMATTR InstName R8
SYMATTR Value 978
SYMBOL voltage -64 144 R0
WINDOW 123 0 0 Left 0
WINDOW 39 0 0 Left 0
SYMATTR InstName V1
SYMATTR Value 15.03
TEXT -96 424 Left 2 !.op
TEXT 152 -80 Left 2 ;6.3 VDR - Complex Circuit
