Version 4
SHEET 1 1768 856
WIRE 1008 -144 896 -144
WIRE 1200 -144 1088 -144
WIRE 1472 -144 1200 -144
WIRE 896 -16 896 -144
WIRE 1200 -16 1200 -144
WIRE 1472 -16 1472 -144
WIRE 0 96 -64 96
WIRE 240 96 80 96
WIRE 512 96 240 96
WIRE 240 160 240 96
WIRE 896 192 896 64
WIRE 1200 192 1200 64
WIRE 1200 192 896 192
WIRE 1472 192 1472 64
WIRE 1472 192 1200 192
WIRE -64 224 -64 96
WIRE 512 224 512 96
WIRE 1200 224 1200 192
WIRE 240 288 240 240
WIRE -64 432 -64 304
WIRE 240 432 240 368
WIRE 240 432 -64 432
WIRE 512 432 512 304
WIRE 512 432 240 432
WIRE 1232 448 960 448
WIRE 1520 448 1232 448
WIRE 240 464 240 432
WIRE 1232 512 1232 448
WIRE 960 576 960 448
WIRE 1520 576 1520 448
WIRE 1232 640 1232 592
WIRE 960 784 960 656
WIRE 1232 784 1232 720
WIRE 1232 784 960 784
WIRE 1520 784 1520 656
WIRE 1520 784 1232 784
WIRE 1232 816 1232 784
FLAG 240 464 0
FLAG 1200 224 0
FLAG 1232 816 0
DATAFLAG 1200 -144 ""
DATAFLAG 896 -144 ""
DATAFLAG 1232 448 ""
DATAFLAG 240 272 ""
DATAFLAG -64 96 ""
DATAFLAG 256 96 ""
SYMBOL res 496 208 R0
SYMATTR InstName R3_s12
SYMATTR Value 9.65k
SYMBOL voltage -64 208 R0
WINDOW 0 -113 16 Left 2
WINDOW 3 -88 100 Left 2
SYMATTR InstName V1_s12
SYMATTR Value 11.91
SYMBOL res 224 144 R0
SYMATTR InstName R2_s12
SYMATTR Value 6.44k
SYMBOL voltage 240 272 R0
SYMATTR InstName V2_s12
SYMATTR Value 15
SYMBOL res 96 80 R90
WINDOW 0 0 56 VBottom 2
WINDOW 3 32 56 VTop 2
SYMATTR InstName R1_s12
SYMATTR Value 4.62k
SYMBOL res 1456 -32 R0
SYMATTR InstName R3_s1
SYMATTR Value 9.65k
SYMBOL voltage 896 -32 R0
WINDOW 0 -61 18 Left 2
WINDOW 3 -88 100 Left 2
SYMATTR InstName V1
SYMATTR Value 11.91
SYMBOL res 1184 -32 R0
SYMATTR InstName R2_s1
SYMATTR Value 6.44k
SYMBOL res 1104 -160 R90
WINDOW 0 0 56 VBottom 2
WINDOW 3 32 56 VTop 2
SYMATTR InstName R1_s1
SYMATTR Value 4.62k
SYMBOL res 1504 560 R0
SYMATTR InstName R3_s2
SYMATTR Value 9.65k
SYMBOL res 1216 496 R0
SYMATTR InstName R2_s2
SYMATTR Value 6.44k
SYMBOL voltage 1232 624 R0
SYMATTR InstName V2
SYMATTR Value 15
SYMBOL res 976 672 R180
WINDOW 0 36 76 Left 2
WINDOW 3 36 40 Left 2
SYMATTR InstName R1_s2
SYMATTR Value 4.62k
TEXT -176 840 Left 2 !.op
TEXT -8 -40 Left 4 ;Superposition: Circuit 1
TEXT 1640 64 Left 2 ;V_2 = 0 V
TEXT 776 728 Left 2 ;V_1 = 0 V
