Version 4
SHEET 1 880 680
WIRE 304 -112 224 -112
WIRE 448 -112 384 -112
WIRE -144 -32 -144 -64
WIRE 64 32 16 32
WIRE 224 32 224 -112
WIRE 224 32 144 32
WIRE 272 32 224 32
WIRE 448 48 448 -112
WIRE 448 48 336 48
WIRE 496 48 448 48
WIRE -144 64 -144 48
WIRE -144 64 -224 64
WIRE 272 64 224 64
WIRE -144 80 -144 64
WIRE -224 96 -224 64
WIRE 16 112 16 32
WIRE 224 128 224 64
WIRE -144 192 -144 160
WIRE 224 240 224 208
FLAG -224 96 0
FLAG -144 -64 V++
FLAG -144 192 V--
FLAG 304 16 V++
FLAG 304 80 V--
FLAG 224 240 0
FLAG 16 112 0
FLAG 496 48 V_out
FLAG 224 64 V_in
SYMBOL voltage -144 -48 R0
SYMATTR InstName +Vcc
SYMATTR Value 12
SYMBOL voltage -144 64 R0
SYMATTR InstName -Vcc
SYMATTR Value 12
SYMBOL res 160 16 R90
WINDOW 0 0 56 VBottom 2
WINDOW 3 32 56 VTop 2
SYMATTR InstName R_1
SYMATTR Value 979
SYMBOL res 400 -128 R90
WINDOW 0 0 56 VBottom 2
WINDOW 3 32 56 VTop 2
SYMATTR InstName R_f
SYMATTR Value 4.67k
SYMBOL voltage 224 112 R0
WINDOW 123 0 0 Left 0
WINDOW 39 0 0 Left 0
SYMATTR InstName V_s
SYMATTR Value SINE(0 0.5 1k)
SYMBOL OpAmps\\UniversalOpAmp2 304 48 R0
SYMATTR InstName U1
TEXT -224 264 Left 2 !.tran 5m
