Version 4
SHEET 1 880 680
WIRE 176 32 128 32
WIRE 128 48 128 32
WIRE 176 96 176 32
WIRE 224 96 176 96
WIRE 368 112 288 112
WIRE 448 112 368 112
WIRE 512 112 448 112
WIRE 0 128 -192 128
WIRE 176 128 80 128
WIRE 224 128 176 128
WIRE -496 144 -496 80
WIRE -192 208 -192 128
WIRE 448 224 448 112
WIRE 48 256 0 256
WIRE 176 256 176 128
WIRE 176 256 128 256
WIRE 224 256 176 256
WIRE 368 256 368 112
WIRE 368 256 304 256
WIRE -192 272 -192 208
WIRE -496 288 -496 224
WIRE -496 288 -608 288
WIRE 0 288 0 256
WIRE -608 304 -608 288
WIRE -496 336 -496 288
WIRE 0 336 0 288
WIRE 448 384 448 304
WIRE -496 480 -496 416
WIRE -192 480 -192 352
WIRE -96 480 -192 480
WIRE 0 480 0 416
WIRE 0 480 -96 480
WIRE -96 496 -96 480
FLAG -96 496 0
FLAG -608 304 0
FLAG -496 80 V++
FLAG -496 480 V--
FLAG 256 80 V--
FLAG 256 144 V++
FLAG 512 112 V_out
FLAG 128 48 0
FLAG 448 384 0
FLAG 0 288 V_in1
FLAG -192 208 V_in2
DATAFLAG 496 112 ""
DATAFLAG -192 128 ""
DATAFLAG 16 256 ""
SYMBOL OpAmps\\UniversalOpAmp2 256 112 M180
SYMATTR InstName U1
SYMBOL res 96 112 R90
WINDOW 0 0 56 VBottom 2
WINDOW 3 32 56 VTop 2
SYMATTR InstName R7
SYMATTR Value 989
SYMBOL res 144 240 R90
WINDOW 0 0 56 VBottom 2
WINDOW 3 32 56 VTop 2
SYMATTR InstName R5
SYMATTR Value 984
SYMBOL res 320 240 R90
WINDOW 0 0 56 VBottom 2
WINDOW 3 32 56 VTop 2
SYMATTR InstName R8
SYMATTR Value 986
SYMBOL res 464 320 R180
WINDOW 0 36 76 Left 2
WINDOW 3 36 40 Left 2
SYMATTR InstName R1
SYMATTR Value 991
SYMBOL voltage -496 128 R0
SYMATTR InstName +Vcc
SYMATTR Value 15
SYMBOL voltage -496 320 R0
SYMATTR InstName -Vcc
SYMATTR Value 15
SYMBOL voltage 0 320 R0
WINDOW 123 0 0 Left 0
WINDOW 39 0 0 Left 0
SYMATTR InstName V6
SYMATTR Value 2
SYMBOL voltage -192 256 R0
SYMATTR InstName V3
SYMATTR Value 9
TEXT -656 568 Left 2 !.op
TEXT 176 472 Left 2 ;Summer Circuit
