Version 4.1
SHEET 1 880 804
WIRE -192 48 -192 -16
WIRE 64 96 -64 96
WIRE 224 96 144 96
WIRE 304 96 224 96
WIRE 400 112 368 112
WIRE 448 112 400 112
WIRE 624 112 528 112
WIRE 304 128 272 128
WIRE -192 160 -192 128
WIRE -192 160 -336 160
WIRE -192 176 -192 160
WIRE -64 192 -64 96
WIRE 224 192 224 96
WIRE 272 192 272 128
WIRE 400 192 400 112
WIRE 400 192 272 192
WIRE 624 192 624 112
WIRE -336 208 -336 160
WIRE -192 336 -192 256
WIRE -64 336 -64 272
WIRE 224 336 224 256
WIRE 224 336 -64 336
WIRE 624 336 624 272
WIRE 624 336 224 336
WIRE -64 368 -64 336
WIRE 64 496 -64 496
WIRE 224 496 144 496
WIRE 336 496 224 496
WIRE 544 496 416 496
WIRE 544 560 544 496
WIRE -64 592 -64 496
WIRE 224 592 224 496
WIRE -64 736 -64 672
WIRE 224 736 224 656
WIRE 224 736 -64 736
WIRE 544 736 544 640
WIRE 544 736 224 736
WIRE -64 768 -64 736
FLAG -64 368 0
FLAG -336 208 0
FLAG -192 -16 V++
FLAG -192 336 V--
FLAG 336 144 V++
FLAG 336 80 V--
FLAG -64 768 0
SYMBOL res 160 80 R90
WINDOW 0 0 56 VBottom 2
WINDOW 3 32 56 VTop 2
SYMATTR InstName R1
SYMATTR Value 1k
SYMBOL res 640 288 R180
WINDOW 0 36 76 Left 2
WINDOW 3 36 40 Left 2
SYMATTR InstName R2
SYMATTR Value 500
SYMBOL ind 544 96 R90
WINDOW 0 5 56 VBottom 2
WINDOW 3 32 56 VTop 2
SYMATTR InstName L1
SYMATTR Value 270µ
SYMBOL cap 208 192 R0
SYMATTR InstName C1
SYMATTR Value 0.01µ
SYMBOL voltage -64 176 R0
WINDOW 123 24 124 Left 2
WINDOW 39 0 0 Left 0
SYMATTR Value2 AC 1
SYMATTR InstName V1
SYMATTR Value ""
SYMBOL OpAmps\\UniversalOpAmp2 336 112 M180
SYMATTR InstName U1
SYMBOL voltage -192 32 R0
SYMATTR InstName V2
SYMATTR Value 15
SYMBOL voltage -192 160 R0
SYMATTR InstName V3
SYMATTR Value 15
SYMBOL res 160 480 R90
WINDOW 0 0 56 VBottom 2
WINDOW 3 32 56 VTop 2
SYMATTR InstName R3
SYMATTR Value 1k
SYMBOL res 560 656 R180
WINDOW 0 36 76 Left 2
WINDOW 3 36 40 Left 2
SYMATTR InstName R4
SYMATTR Value 500
SYMBOL ind 432 480 R90
WINDOW 0 5 56 VBottom 2
WINDOW 3 32 56 VTop 2
SYMATTR InstName L2
SYMATTR Value 270µ
SYMBOL cap 208 592 R0
SYMATTR InstName C2
SYMATTR Value 0.01µ
SYMBOL voltage -64 576 R0
WINDOW 123 24 124 Left 2
WINDOW 39 0 0 Left 0
SYMATTR Value2 AC 1
SYMATTR InstName V4
SYMATTR Value ""
TEXT -64 432 Left 2 !.ac dec 100 100 1G
