Version 4.1
SHEET 1 880 680
WIRE 400 0 176 0
WIRE -176 16 -176 -32
WIRE 176 80 176 0
WIRE 208 80 176 80
WIRE 400 96 400 0
WIRE 400 96 272 96
WIRE 16 112 -32 112
WIRE 144 112 96 112
WIRE 208 112 144 112
WIRE -176 128 -176 96
WIRE -176 128 -288 128
WIRE 400 144 400 96
WIRE -288 160 -288 128
WIRE -176 160 -176 128
WIRE -32 160 -32 112
WIRE 144 176 144 112
WIRE -176 272 -176 240
WIRE -32 288 -32 240
WIRE 144 288 144 240
WIRE 144 288 -32 288
WIRE 400 288 400 224
WIRE 400 288 144 288
WIRE -32 304 -32 288
FLAG -32 304 0
FLAG -288 160 0
FLAG -176 -32 V++
FLAG -176 272 V--
FLAG 240 128 V--
FLAG 240 64 V++
SYMBOL OpAmps\\UniversalOpAmp2 240 96 R0
SYMATTR InstName U1
SYMBOL res 112 96 R90
WINDOW 0 0 56 VBottom 2
WINDOW 3 32 56 VTop 2
SYMATTR InstName R1
SYMATTR Value 120k
SYMBOL cap 128 176 R0
SYMATTR InstName C1
SYMATTR Value 0.001µ
SYMBOL res 384 128 R0
SYMATTR InstName R_L
SYMATTR Value 1k
SYMBOL voltage -176 0 R0
SYMATTR InstName V1
SYMATTR Value 15
SYMBOL voltage -176 144 R0
SYMATTR InstName V2
SYMATTR Value 15
SYMBOL voltage -32 144 R0
SYMATTR InstName Vin
SYMATTR Value AC 1
TEXT -32 352 Left 2 !.ac dec 100 100 1Meg
