Version 4.1
SHEET 1 1044 680
WIRE 160 80 0 80
WIRE 384 80 240 80
WIRE 704 80 544 80
WIRE 912 80 784 80
WIRE 384 160 384 80
WIRE 0 176 0 80
WIRE 544 176 544 80
WIRE 912 176 912 80
WIRE 0 320 0 256
WIRE 384 320 384 240
WIRE 384 320 0 320
WIRE 544 320 544 256
WIRE 912 320 912 256
WIRE 912 320 544 320
WIRE 0 336 0 320
WIRE 544 336 544 320
FLAG 0 336 0
FLAG 544 336 0
SYMBOL res 256 64 R90
WINDOW 0 0 56 VBottom 2
WINDOW 3 32 56 VTop 2
SYMATTR InstName R1
SYMATTR Value 500
SYMBOL ind 368 144 R0
SYMATTR InstName L1
SYMATTR Value 270µ
SYMBOL voltage 0 160 R0
WINDOW 123 24 124 Left 2
WINDOW 39 0 0 Left 0
SYMATTR Value2 AC 1
SYMATTR InstName V1
SYMATTR Value ""
SYMBOL ind 800 64 R90
WINDOW 0 5 56 VBottom 2
WINDOW 3 32 56 VTop 2
SYMATTR InstName L2
SYMATTR Value 270µ
SYMBOL res 896 160 R0
SYMATTR InstName R2
SYMATTR Value 500
SYMBOL voltage 544 160 R0
WINDOW 123 24 124 Left 2
WINDOW 39 0 0 Left 0
SYMATTR InstName V2
SYMATTR Value ""
SYMATTR Value2 AC 1
TEXT 0 384 Left 2 !.ac dec 100 100 1G
TEXT 688 208 Left 2 ;Low Pass
TEXT 120 208 Left 2 ;High Pass
