Version 4.1
SHEET 1 880 680
WIRE 176 64 0 64
WIRE 288 64 176 64
WIRE 400 64 288 64
WIRE 0 112 0 64
WIRE 176 112 176 64
WIRE 288 112 288 64
WIRE 400 112 400 64
WIRE 0 240 0 192
WIRE 176 240 176 192
WIRE 176 240 0 240
WIRE 288 240 288 192
WIRE 288 240 176 240
WIRE 400 240 400 176
WIRE 400 240 288 240
WIRE 176 256 176 240
FLAG 176 256 0
SYMBOL res 160 96 R0
SYMATTR InstName R
SYMATTR Value 1k
SYMBOL ind 272 96 R0
SYMATTR InstName L
SYMATTR Value 10m
SYMBOL cap 384 112 R0
SYMATTR InstName C
SYMATTR Value 0.012µ
SYMBOL voltage 0 96 R0
WINDOW 123 0 0 Left 0
WINDOW 39 0 0 Left 0
WINDOW 3 -161 102 Left 2
SYMATTR InstName Vin
SYMATTR Value SINE(0 5 14.528kk 0 0 0 5)
TEXT -32 280 Left 2 !.tran 200u
