Version 4.1
SHEET 1 880 680
WIRE 80 96 -32 96
WIRE 272 96 160 96
WIRE 464 96 352 96
WIRE -32 176 -32 96
WIRE 464 176 464 96
WIRE -32 304 -32 256
WIRE 464 304 464 240
WIRE 464 304 -32 304
WIRE -32 336 -32 304
FLAG -32 336 0
SYMBOL res 176 80 R90
WINDOW 0 0 56 VBottom 2
WINDOW 3 32 56 VTop 2
SYMATTR InstName R1
SYMATTR Value 1k
SYMBOL ind 368 80 R90
WINDOW 0 5 56 VBottom 2
WINDOW 3 32 56 VTop 2
SYMATTR InstName L1
SYMATTR Value 10m
SYMBOL cap 448 176 R0
SYMATTR InstName C1
SYMATTR Value 0.1µ
SYMBOL voltage -32 160 R0
WINDOW 123 24 124 Left 2
WINDOW 39 0 0 Left 0
SYMATTR Value2 AC 1
SYMATTR InstName V1
SYMATTR Value ""
TEXT -40 368 Left 2 !.ac dec 100 1 100Meg
