Version 4.1
SHEET 1 880 680
WIRE 352 -464 304 -464
WIRE 496 -464 432 -464
WIRE 640 -464 576 -464
WIRE 640 -336 640 -464
WIRE 304 -256 304 -464
WIRE 304 -128 304 -176
WIRE 640 -128 640 -272
WIRE 640 -128 304 -128
WIRE 304 -96 304 -128
WIRE -96 -32 -208 -32
WIRE 64 -32 -16 -32
WIRE 304 -32 144 -32
WIRE 352 -32 304 -32
WIRE 496 -32 432 -32
WIRE 640 -32 576 -32
WIRE 80 48 80 16
WIRE 304 48 304 -32
WIRE 128 64 128 16
WIRE 256 64 128 64
WIRE -208 96 -208 -32
WIRE 640 96 640 -32
WIRE 256 112 224 112
WIRE 128 128 128 64
WIRE 224 144 224 112
WIRE 304 176 304 128
WIRE -208 304 -208 176
WIRE 128 304 128 208
WIRE 128 304 -208 304
WIRE 304 304 304 256
WIRE 304 304 128 304
WIRE 640 304 640 160
WIRE 640 304 304 304
WIRE -208 336 -208 304
FLAG 224 144 0
FLAG 80 48 0
FLAG -208 336 0
FLAG 304 -96 0
SYMBOL voltage 128 112 R0
WINDOW 0 -32 56 VBottom 2
WINDOW 3 -58 103 Top 2
WINDOW 123 0 0 Left 0
WINDOW 39 0 0 Left 0
SYMATTR InstName V2
SYMATTR Value PULSE(1 -1 0 1n 1n 10m 20m 1)
SYMBOL sw 48 -32 R270
WINDOW 0 24 -11 VRight 2
WINDOW 3 24 96 VRight 2
SYMATTR InstName S1
SYMATTR Value sw1
SYMBOL sw 304 32 R0
SYMATTR InstName S2
SYMATTR Value sw2
SYMBOL res 0 -48 R90
WINDOW 0 0 56 VBottom 2
WINDOW 3 32 56 VTop 2
SYMATTR InstName R1
SYMATTR Value 500
SYMBOL res 288 160 R0
SYMATTR InstName R3
SYMATTR Value 1k
SYMBOL voltage -208 80 R0
WINDOW 123 0 0 Left 0
WINDOW 39 0 0 Left 0
SYMATTR InstName V1
SYMATTR Value 15
SYMBOL res 448 -48 R90
WINDOW 0 0 56 VBottom 2
WINDOW 3 32 56 VTop 2
SYMATTR InstName R2
SYMATTR Value 500
SYMBOL ind 480 -16 R270
WINDOW 0 32 56 VTop 2
WINDOW 3 5 56 VBottom 2
SYMATTR InstName L1
SYMATTR Value 0.5
SYMBOL cap 624 96 R0
SYMATTR InstName C1
SYMATTR Value 0.2µ
SYMBOL res 288 -272 R0
SYMATTR InstName R5
SYMATTR Value 1k
SYMBOL res 448 -480 R90
WINDOW 0 0 56 VBottom 2
WINDOW 3 32 56 VTop 2
SYMATTR InstName R6
SYMATTR Value 500
SYMBOL ind 480 -448 R270
WINDOW 0 32 56 VTop 2
WINDOW 3 5 56 VBottom 2
SYMATTR InstName L2
SYMATTR Value 0.5 IC = 0
SYMBOL cap 624 -336 R0
SYMATTR InstName C2
SYMATTR Value 0.2µ IC = 15
TEXT -168 360 Left 2 !.model sw1 SW(Ron = 1 Roff = 100Meg Vt = 0.5)
TEXT -168 392 Left 2 !.model sw2 SW(Ron = 1 Roff = 100Meg Vt = 0.5)
TEXT -168 328 Left 2 !.tran 10m
