Version 4.1
SHEET 1 880 680
WIRE 0 80 -80 80
WIRE 144 80 80 80
WIRE 368 80 304 80
WIRE 544 80 448 80
WIRE -80 128 -80 80
WIRE 144 128 144 80
WIRE 304 128 304 80
WIRE 544 128 544 80
WIRE -80 256 -80 208
WIRE 144 256 144 208
WIRE 144 256 -80 256
WIRE 304 256 304 208
WIRE 544 256 544 208
WIRE 544 256 304 256
WIRE -80 272 -80 256
WIRE 304 272 304 256
FLAG -80 272 0
FLAG 304 272 0
SYMBOL res 96 64 R90
WINDOW 0 0 56 VBottom 2
WINDOW 3 32 56 VTop 2
SYMATTR InstName R1
SYMATTR Value 2.2k
SYMBOL res 560 224 R180
WINDOW 0 36 76 Left 2
WINDOW 3 36 40 Left 2
SYMATTR InstName R2
SYMATTR Value 2.2k
SYMBOL ind 128 112 R0
SYMATTR InstName L1
SYMATTR Value 10m
SYMBOL ind 464 64 R90
WINDOW 0 5 56 VBottom 2
WINDOW 3 32 56 VTop 2
SYMATTR InstName L2
SYMATTR Value 10m
SYMBOL voltage 304 112 R0
SYMATTR InstName V1
SYMATTR Value AC 1
SYMBOL voltage -80 112 R0
SYMATTR InstName V2
SYMATTR Value AC 1
TEXT -80 304 Left 2 !.ac dec 100 100 1Meg
