Version 4.1
SHEET 1 880 680
WIRE 80 112 32 112
WIRE 240 112 160 112
WIRE 288 112 240 112
WIRE 416 112 368 112
WIRE 32 160 32 112
WIRE 32 272 32 240
WIRE 224 272 32 272
WIRE 416 272 416 112
WIRE 416 272 224 272
WIRE 224 288 224 272
FLAG 224 288 0
FLAG 32 112 Vin
FLAG 240 112 Vo
SYMBOL res 176 96 R90
WINDOW 0 0 56 VBottom 2
WINDOW 3 32 56 VTop 2
SYMATTR InstName R
SYMATTR Value 1k
SYMBOL ind 272 128 R270
WINDOW 0 32 56 VTop 2
WINDOW 3 5 56 VBottom 2
SYMATTR InstName L
SYMATTR Value 4.7m
SYMBOL voltage 32 144 R0
WINDOW 123 0 0 Left 0
WINDOW 39 0 0 Left 0
SYMATTR InstName Vin
SYMATTR Value PULSE(-2.5 2.5 0 1n 1n 23.5u 47u 5)
TEXT 0 312 Left 2 !.tran 100u
