Version 4.1
SHEET 1 880 680
WIRE 96 80 0 80
WIRE 240 80 160 80
WIRE 416 80 320 80
WIRE 0 144 0 80
WIRE 416 144 416 80
WIRE 0 272 0 224
WIRE 176 272 0 272
WIRE 416 272 416 224
WIRE 416 272 176 272
WIRE 176 288 176 272
FLAG 176 288 0
SYMBOL cap 160 64 R90
WINDOW 0 0 32 VBottom 2
WINDOW 3 32 32 VTop 2
SYMATTR InstName C1
SYMATTR Value 0.01µ
SYMBOL ind 336 64 R90
WINDOW 0 5 56 VBottom 2
WINDOW 3 32 56 VTop 2
SYMATTR InstName L1
SYMATTR Value 10m
SYMBOL res 400 128 R0
SYMATTR InstName R1
SYMATTR Value 2.2k
SYMBOL voltage 0 128 R0
WINDOW 123 22 100 Left 2
WINDOW 39 0 0 Left 0
SYMATTR InstName V1
SYMATTR Value ""
SYMATTR Value2 AC 1
TEXT 0 328 Left 2 !.ac dec 100 100 1Meg
