Version 4.1
SHEET 1 880 680
WIRE 96 96 -16 96
WIRE 240 96 176 96
WIRE 272 96 240 96
WIRE 400 96 336 96
WIRE -16 160 -16 96
WIRE -16 288 -16 240
WIRE 176 288 -16 288
WIRE 400 288 400 96
WIRE 400 288 176 288
WIRE 176 304 176 288
FLAG 176 304 0
FLAG 240 96 Vo
FLAG -16 96 Vin
SYMBOL res 192 80 R90
WINDOW 0 0 56 VBottom 2
WINDOW 3 32 56 VTop 2
SYMATTR InstName R
SYMATTR Value 1k
SYMBOL cap 336 80 R90
WINDOW 0 0 32 VBottom 2
WINDOW 3 32 32 VTop 2
SYMATTR InstName C
SYMATTR Value 0.01µ
SYMBOL voltage -16 144 R0
WINDOW 123 0 0 Left 0
WINDOW 39 0 0 Left 0
SYMATTR InstName Vin
SYMATTR Value PULSE(-2.5 2.5 0 1n 1n 23.5u 47u 5)
TEXT -48 312 Left 2 !.tran 94u
