Version 4.1
SHEET 1 880 680
WIRE 160 96 0 96
WIRE 352 96 240 96
WIRE 640 96 496 96
WIRE 832 96 704 96
WIRE 496 160 496 96
WIRE 832 160 832 96
WIRE 0 176 0 96
WIRE 352 176 352 96
WIRE 0 320 0 256
WIRE 352 320 352 240
WIRE 352 320 0 320
WIRE 496 320 496 240
WIRE 832 320 832 240
WIRE 832 320 496 320
WIRE 0 336 0 320
WIRE 496 336 496 320
FLAG 0 336 0
FLAG 496 336 0
SYMBOL res 256 80 R90
WINDOW 0 0 56 VBottom 2
WINDOW 3 32 56 VTop 2
SYMATTR InstName R1
SYMATTR Value 1k
SYMBOL cap 336 176 R0
SYMATTR InstName C1
SYMATTR Value 0.01µ
SYMBOL voltage 0 160 R0
WINDOW 123 24 124 Left 2
WINDOW 39 0 0 Left 0
SYMATTR Value2 AC 1
SYMATTR InstName V1
SYMATTR Value ""
SYMBOL res 848 256 R180
WINDOW 0 36 76 Left 2
WINDOW 3 36 40 Left 2
SYMATTR InstName R2
SYMATTR Value 1k
SYMBOL cap 704 80 R90
WINDOW 0 0 32 VBottom 2
WINDOW 3 32 32 VTop 2
SYMATTR InstName C2
SYMATTR Value 0.01µ
SYMBOL voltage 496 144 R0
WINDOW 123 24 124 Left 2
WINDOW 39 0 0 Left 0
SYMATTR InstName V2
SYMATTR Value ""
SYMATTR Value2 AC 1
TEXT -8 368 Left 2 !.ac dec 100 1 1G
TEXT 120 208 Left 2 ;Low Pass
TEXT 616 208 Left 2 ;High Pass
