Version 4.1
SHEET 1 880 680
WIRE 112 80 32 80
WIRE 256 80 176 80
WIRE 368 80 256 80
WIRE 32 128 32 80
WIRE 256 128 256 80
WIRE 368 128 368 80
WIRE 32 272 32 208
WIRE 256 272 256 208
WIRE 256 272 32 272
WIRE 368 272 368 208
WIRE 368 272 256 272
WIRE 256 304 256 272
FLAG 32 80 V_A
FLAG 256 80 V_B
FLAG 256 304 0
SYMBOL cap 176 64 R90
WINDOW 0 0 32 VBottom 2
WINDOW 3 32 32 VTop 2
SYMATTR InstName C1
SYMATTR Value 10µ IC = -5
SYMBOL ind 352 112 R0
SYMATTR InstName L1
SYMATTR Value 0.1 IC = 0
SYMBOL res 16 112 R0
SYMATTR InstName R1
SYMATTR Value 100
SYMBOL res 240 112 R0
SYMATTR InstName R2
SYMATTR Value 100
TEXT 8 288 Left 2 !.tran 15m
