Version 4.1
SHEET 1 880 680
WIRE 96 96 -32 96
WIRE 288 96 176 96
WIRE 480 96 368 96
WIRE -32 160 -32 96
WIRE 480 176 480 96
WIRE -32 304 -32 240
WIRE 480 304 480 240
WIRE 480 304 -32 304
WIRE -32 320 -32 304
FLAG -32 320 0
SYMBOL res 192 80 R90
WINDOW 0 0 56 VBottom 2
WINDOW 3 32 56 VTop 2
SYMATTR InstName R1
SYMATTR Value 1k
SYMBOL ind 384 80 R90
WINDOW 0 5 56 VBottom 2
WINDOW 3 32 56 VTop 2
SYMATTR InstName L1
SYMATTR Value 10m
SYMBOL cap 464 176 R0
SYMATTR InstName C1
SYMATTR Value 0.1µ
SYMBOL voltage -32 144 R0
WINDOW 123 0 0 Left 0
WINDOW 39 0 0 Left 0
SYMATTR InstName V1
SYMATTR Value SINE(0 5 100 0 0 120 5)
TEXT -32 352 Left 2 !.tran 50m
