Version 4.1
SHEET 1 880 680
WIRE 416 16 192 16
WIRE -240 64 -240 16
WIRE 192 96 192 16
WIRE 240 96 192 96
WIRE 416 112 416 16
WIRE 416 112 304 112
WIRE 32 128 -80 128
WIRE 176 128 96 128
WIRE 240 128 176 128
WIRE -240 176 -240 144
WIRE -240 176 -336 176
WIRE 416 176 416 112
WIRE -80 192 -80 128
WIRE 176 192 176 128
WIRE -336 208 -336 176
WIRE -240 208 -240 176
WIRE -240 336 -240 288
WIRE -80 336 -80 272
WIRE 176 336 176 272
WIRE 176 336 -80 336
WIRE 416 336 416 256
WIRE 416 336 176 336
WIRE -80 352 -80 336
FLAG -80 352 0
FLAG 272 144 V--
FLAG 272 80 V++
FLAG -336 208 0
FLAG -240 16 V++
FLAG -240 336 V--
SYMBOL OpAmps\\UniversalOpAmp2 272 112 R0
SYMATTR InstName U1
SYMBOL res 160 176 R0
SYMATTR InstName R1
SYMATTR Value 31.83k
SYMBOL cap 96 112 R90
WINDOW 0 0 32 VBottom 2
WINDOW 3 32 32 VTop 2
SYMATTR InstName C1
SYMATTR Value 0.001µ
SYMBOL voltage -80 176 R0
SYMATTR InstName Vin
SYMATTR Value AC 1
SYMBOL res 400 160 R0
SYMATTR InstName RL
SYMATTR Value 1k
SYMBOL voltage -240 48 R0
SYMATTR InstName V1
SYMATTR Value 15
SYMBOL voltage -240 192 R0
SYMATTR InstName V2
SYMATTR Value 15
TEXT -80 384 Left 2 !.ac dec 100 100 1Meg
