Version 4.1
SHEET 1 880 680
WIRE 320 -576 224 -576
WIRE 512 -576 400 -576
WIRE 576 -576 512 -576
WIRE 720 -576 656 -576
WIRE 512 -432 512 -576
WIRE 224 -400 224 -576
WIRE 720 -368 720 -576
WIRE 512 -272 512 -352
WIRE 224 -128 224 -320
WIRE 512 -128 512 -192
WIRE 512 -128 224 -128
WIRE 720 -128 720 -304
WIRE 720 -128 512 -128
WIRE 224 -96 224 -128
WIRE -48 -48 -256 -48
WIRE -32 -48 -48 -48
WIRE 224 -48 32 -48
WIRE 320 -48 224 -48
WIRE 512 -48 400 -48
WIRE 576 -48 512 -48
WIRE 720 -48 656 -48
WIRE -32 32 -32 0
WIRE 224 32 224 -48
WIRE 16 48 16 0
WIRE 176 48 16 48
WIRE -256 96 -256 -48
WIRE 176 96 144 96
WIRE 512 96 512 -48
WIRE 144 128 144 96
WIRE 16 160 16 48
WIRE 720 160 720 -48
WIRE 224 208 224 112
WIRE 512 256 512 176
WIRE -256 400 -256 176
WIRE 16 400 16 240
WIRE 16 400 -256 400
WIRE 224 400 224 288
WIRE 224 400 16 400
WIRE 512 400 512 336
WIRE 512 400 224 400
WIRE 720 400 720 224
WIRE 720 400 512 400
WIRE -256 432 -256 400
FLAG -256 432 0
FLAG -32 32 0
FLAG 144 128 0
FLAG 224 -96 0
SYMBOL voltage -256 80 R0
WINDOW 123 0 0 Left 0
WINDOW 39 0 0 Left 0
SYMATTR InstName VA
SYMATTR Value 20
SYMBOL voltage 224 192 R0
WINDOW 3 -96 114 Left 2
WINDOW 123 0 0 Left 0
WINDOW 39 0 0 Left 0
SYMATTR Value EXP(0 5 0 0 0 0.0005)
SYMATTR InstName VB
SYMBOL res 416 -64 R90
WINDOW 0 0 56 VBottom 2
WINDOW 3 32 56 VTop 2
SYMATTR InstName R1
SYMATTR Value 1k
SYMBOL res 672 -64 R90
WINDOW 0 0 56 VBottom 2
WINDOW 3 32 56 VTop 2
SYMATTR InstName R2
SYMATTR Value 2k
SYMBOL res 528 192 R180
WINDOW 0 36 76 Left 2
WINDOW 3 36 40 Left 2
SYMATTR InstName R3
SYMATTR Value 1k
SYMBOL ind 496 240 R0
SYMATTR InstName L1
SYMATTR Value 1
SYMBOL cap 704 160 R0
SYMATTR InstName C1
SYMATTR Value 0.1µ
SYMBOL sw -64 -48 R270
WINDOW 0 35 -10 VRight 2
WINDOW 3 32 89 VRight 2
SYMATTR InstName S1
SYMATTR Value sw1
SYMBOL sw 224 16 R0
SYMATTR InstName S2
SYMATTR Value sw2
SYMBOL voltage 16 144 R0
WINDOW 3 -214 100 Left 2
WINDOW 123 0 0 Left 0
WINDOW 39 0 0 Left 0
SYMATTR Value PULSE(1 -1 0 1n 1n 5m 10m 2)
SYMATTR InstName V3
SYMBOL voltage 224 -416 R0
WINDOW 3 -96 114 Left 2
WINDOW 123 0 0 Left 0
WINDOW 39 0 0 Left 0
SYMATTR Value EXP(0 5 0 0 0 0.0005)
SYMATTR InstName VB1
SYMBOL res 416 -592 R90
WINDOW 0 0 56 VBottom 2
WINDOW 3 32 56 VTop 2
SYMATTR InstName R4
SYMATTR Value 1k
SYMBOL res 672 -592 R90
WINDOW 0 0 56 VBottom 2
WINDOW 3 32 56 VTop 2
SYMATTR InstName R5
SYMATTR Value 2k
SYMBOL res 528 -336 R180
WINDOW 0 36 76 Left 2
WINDOW 3 36 40 Left 2
SYMATTR InstName R6
SYMATTR Value 1k
SYMBOL ind 496 -288 R0
SYMATTR InstName L2
SYMATTR Value 1 IC = 10m
SYMBOL cap 704 -368 R0
SYMATTR InstName C2
SYMATTR Value 0.1µ IC = 10
TEXT -224 424 Left 2 !.tran 5m
TEXT -224 448 Left 2 !.model sw1 SW(Ron = 1 Roff = 100Meg Vt = 0.5)
TEXT -224 472 Left 2 !.model sw2 SW(Ron = 1 Roff = 100Meg Vt = 0.5)
