Version 4.1
SHEET 1 880 680
WIRE -64 80 -144 80
WIRE 128 80 16 80
WIRE 384 80 288 80
WIRE 560 80 448 80
WIRE -144 128 -144 80
WIRE 288 128 288 80
WIRE 560 128 560 80
WIRE 128 144 128 80
WIRE -144 256 -144 208
WIRE 128 256 128 208
WIRE 128 256 -144 256
WIRE 288 256 288 208
WIRE 560 256 560 208
WIRE 560 256 288 256
WIRE -144 272 -144 256
WIRE 288 272 288 256
FLAG 288 272 0
FLAG -144 272 0
SYMBOL res 32 64 R90
WINDOW 0 0 56 VBottom 2
WINDOW 3 32 56 VTop 2
SYMATTR InstName R1
SYMATTR Value 2.2k
SYMBOL cap 112 144 R0
SYMATTR InstName C1
SYMATTR Value 0.01µ
SYMBOL cap 448 64 R90
WINDOW 0 0 32 VBottom 2
WINDOW 3 32 32 VTop 2
SYMATTR InstName C2
SYMATTR Value 0.01µ
SYMBOL res 544 112 R0
SYMATTR InstName R2
SYMATTR Value 2.2k
SYMBOL voltage 288 112 R0
WINDOW 123 19 98 Left 2
WINDOW 39 0 0 Left 0
SYMATTR InstName V1
SYMATTR Value ""
SYMATTR Value2 AC 1
SYMBOL voltage -144 112 R0
SYMATTR InstName V2
SYMATTR Value AC 1
TEXT -144 328 Left 2 !.ac  dec 100 100 1Meg
