Version 4.1
SHEET 1 880 680
WIRE 128 80 -16 80
WIRE 336 80 208 80
WIRE 336 128 336 80
WIRE -16 176 -16 80
WIRE 336 240 336 208
WIRE -16 352 -16 256
WIRE 160 352 -16 352
WIRE 336 352 336 304
WIRE 336 352 160 352
WIRE 160 368 160 352
FLAG 160 368 0
SYMBOL res 224 64 R90
WINDOW 0 0 56 VBottom 2
WINDOW 3 32 56 VTop 2
SYMATTR InstName R1
SYMATTR Value 2.2k
SYMBOL ind 320 112 R0
SYMATTR InstName L1
SYMATTR Value 10m
SYMBOL cap 320 240 R0
SYMATTR InstName C1
SYMATTR Value 0.01µ
SYMBOL voltage -16 160 R0
WINDOW 123 24 124 Left 2
WINDOW 39 0 0 Left 0
SYMATTR InstName V1
SYMATTR Value ""
SYMATTR Value2 AC 1
TEXT -48 392 Left 2 !.ac dec 100 100 1Meg
