Version 4.1
SHEET 1 880 680
WIRE 96 0 16 0
WIRE 224 0 176 0
WIRE 288 0 224 0
WIRE 432 0 368 0
WIRE -208 32 -208 0
WIRE 16 32 16 0
WIRE 224 96 224 0
WIRE 256 96 224 96
WIRE 432 112 432 0
WIRE 432 112 320 112
WIRE 48 128 -32 128
WIRE 192 128 128 128
WIRE 256 128 192 128
WIRE -208 144 -208 112
WIRE -208 144 -320 144
WIRE 432 144 432 112
WIRE -320 176 -320 144
WIRE -208 176 -208 144
WIRE -32 176 -32 128
WIRE 192 176 192 128
WIRE -208 272 -208 256
WIRE -32 304 -32 256
WIRE 192 304 192 240
WIRE 192 304 -32 304
WIRE 432 304 432 224
WIRE 432 304 192 304
WIRE 192 320 192 304
FLAG 192 320 0
FLAG 16 32 0
FLAG -320 176 0
FLAG -208 0 V++
FLAG -208 272 V--
FLAG 288 80 V++
FLAG 288 144 V--
FLAG 432 112 V_out
SYMBOL OpAmps\\UniversalOpAmp2 288 112 R0
SYMATTR InstName U1
SYMBOL res 416 128 R0
SYMATTR InstName RL
SYMATTR Value 1k
SYMBOL res 144 112 R90
WINDOW 0 0 56 VBottom 2
WINDOW 3 32 56 VTop 2
SYMATTR InstName R1
SYMATTR Value 32k
SYMBOL cap 176 176 R0
SYMATTR InstName C1
SYMATTR Value 0.001µ
SYMBOL res 384 -16 R90
WINDOW 0 0 56 VBottom 2
WINDOW 3 32 56 VTop 2
SYMATTR InstName R3
SYMATTR Value 40k
SYMBOL res 192 -16 R90
WINDOW 0 0 56 VBottom 2
WINDOW 3 32 56 VTop 2
SYMATTR InstName R2
SYMATTR Value 10k
SYMBOL voltage -32 160 R0
SYMATTR InstName Vin
SYMATTR Value AC 1
SYMBOL voltage -208 16 R0
SYMATTR InstName V2
SYMATTR Value 15
SYMBOL voltage -208 160 R0
SYMATTR InstName V3
SYMATTR Value 15
TEXT -32 352 Left 2 !.ac dec 100 100 100Meg
