Version 4.1
SHEET 1 880 680
WIRE 80 96 -16 96
WIRE 240 96 160 96
WIRE 368 96 320 96
WIRE 400 96 368 96
WIRE 544 96 464 96
WIRE -16 160 -16 96
WIRE -16 272 -16 240
WIRE 272 272 -16 272
WIRE 544 272 544 96
WIRE 544 272 272 272
WIRE 272 288 272 272
FLAG 272 288 0
FLAG 368 96 V_out
FLAG -16 96 V_in
SYMBOL res 176 80 R90
WINDOW 0 0 56 VBottom 2
WINDOW 3 32 56 VTop 2
SYMATTR InstName R
SYMATTR Value 1k
SYMBOL ind 336 80 R90
WINDOW 0 5 56 VBottom 2
WINDOW 3 32 56 VTop 2
SYMATTR InstName L
SYMATTR Value 10m
SYMBOL cap 464 80 R90
WINDOW 0 0 32 VBottom 2
WINDOW 3 32 32 VTop 2
SYMATTR InstName C
SYMATTR Value 0.012µ
SYMBOL voltage -16 144 R0
WINDOW 123 0 0 Left 0
WINDOW 39 0 0 Left 0
SYMATTR InstName Vin
SYMATTR Value SINE(0 5 14.528k 0 0 0 5)
TEXT -48 312 Left 2 !.tran 200u
