Version 4.1
SHEET 1 880 680
WIRE 176 64 32 64
WIRE 368 64 256 64
WIRE 32 112 32 64
WIRE 368 128 368 64
WIRE 32 256 32 192
WIRE 368 256 368 192
WIRE 368 256 32 256
WIRE 32 272 32 256
FLAG 32 272 0
SYMBOL diode 352 128 R0
SYMATTR InstName D1
SYMATTR Value 1N4007
SYMBOL voltage 32 96 R0
WINDOW 123 0 0 Left 0
WINDOW 39 0 0 Left 0
SYMATTR InstName V1
SYMATTR Value SINE(0 6 1k 0 0 0 20)
SYMBOL res 272 48 R90
WINDOW 0 0 56 VBottom 2
WINDOW 3 32 56 VTop 2
SYMATTR InstName R1
SYMATTR Value 1k
TEXT 0 296 Left 2 !.tran 6m
