Version 4.1
SHEET 1 880 680
WIRE -240 64 -448 64
WIRE 32 64 -160 64
WIRE -448 144 -448 64
WIRE 32 176 32 64
WIRE -448 336 -448 224
WIRE 32 336 32 240
WIRE 32 336 -448 336
WIRE -448 368 -448 336
FLAG -448 368 0
SYMBOL zener 16 176 R0
SYMATTR InstName D2
SYMATTR Value 1N5375B
SYMBOL res -144 48 R90
WINDOW 0 0 56 VBottom 2
WINDOW 3 32 56 VTop 2
SYMATTR InstName R1
SYMATTR Value 1k
SYMBOL voltage -448 128 R0
WINDOW 3 -161 130 Left 2
WINDOW 123 0 0 Left 0
WINDOW 39 0 0 Left 0
SYMATTR InstName Vin
SYMATTR Value PULSE(-10 10 0 0.5m 0.5m 1u 1m 20)
TEXT -400 368 Left 2 !.tran 5m
