Version 4.1
SHEET 1 880 680
WIRE -240 32 -368 32
WIRE -64 32 -176 32
WIRE 64 32 -64 32
WIRE 240 32 192 32
WIRE 384 32 320 32
WIRE 496 32 448 32
WIRE 624 32 496 32
WIRE -368 96 -368 32
WIRE -64 96 -64 32
WIRE 64 96 64 32
WIRE 192 96 192 32
WIRE 496 96 496 32
WIRE 624 96 624 32
WIRE -368 240 -368 176
WIRE -64 240 -64 176
WIRE -64 240 -368 240
WIRE 64 240 64 160
WIRE 64 240 -64 240
WIRE 192 240 192 176
WIRE 496 240 496 176
WIRE 496 240 192 240
WIRE 624 240 624 160
WIRE 624 240 496 240
WIRE -368 256 -368 240
WIRE 192 256 192 240
FLAG -368 256 0
FLAG 192 256 0
SYMBOL diode -240 48 R270
WINDOW 0 32 32 VTop 2
WINDOW 3 0 32 VBottom 2
SYMATTR InstName D1
SYMATTR Value 1N4007
SYMBOL res -80 80 R0
SYMATTR InstName R1
SYMATTR Value 10k
SYMBOL cap 48 96 R0
SYMATTR InstName C1
SYMATTR Value 20µ
SYMBOL voltage -368 80 R0
WINDOW 123 0 0 Left 0
WINDOW 39 0 0 Left 0
SYMATTR InstName V1
SYMATTR Value SINE(0 20 50 0 0 0 5)
SYMBOL diode 384 48 R270
WINDOW 0 32 32 VTop 2
WINDOW 3 0 32 VBottom 2
SYMATTR InstName D2
SYMATTR Value 1N4007
SYMBOL res 480 80 R0
SYMATTR InstName R2
SYMATTR Value 10k
SYMBOL cap 608 96 R0
SYMATTR InstName C2
SYMATTR Value 20µ
SYMBOL voltage 192 80 R0
WINDOW 123 0 0 Left 0
WINDOW 39 0 0 Left 0
SYMATTR InstName V2
SYMATTR Value SINE(0 20 50 0 0 0 5)
SYMBOL res 336 16 R90
WINDOW 0 0 56 VBottom 2
WINDOW 3 32 56 VTop 2
SYMATTR InstName R3
SYMATTR Value 2.2
TEXT -336 272 Left 2 !.tran 100m
