Version 4.1
SHEET 1 880 680
WIRE 240 32 144 32
WIRE 384 32 320 32
WIRE 144 112 144 32
WIRE -96 160 -192 160
WIRE 80 160 -16 160
WIRE 96 160 80 160
WIRE 384 208 384 32
WIRE -192 256 -192 160
WIRE -192 384 -192 336
WIRE 144 384 144 208
WIRE 144 384 -192 384
WIRE 384 384 384 288
WIRE 384 384 144 384
WIRE 144 400 144 384
FLAG 144 400 0
FLAG 144 32 V_C
SYMBOL npn 80 112 R0
SYMATTR InstName Q1
SYMATTR Value 2N3904
SYMBOL res 0 144 R90
WINDOW 0 0 56 VBottom 2
WINDOW 3 32 56 VTop 2
SYMATTR InstName R1
SYMATTR Value 99.78k
SYMBOL res 224 48 R270
WINDOW 0 32 56 VTop 2
WINDOW 3 0 56 VBottom 2
SYMATTR InstName R2
SYMATTR Value 9.82k
SYMBOL voltage 384 192 R0
WINDOW 123 0 0 Left 0
WINDOW 39 0 0 Left 0
SYMATTR InstName V_CC
SYMATTR Value 3
SYMBOL voltage -192 240 R0
SYMATTR InstName V_BB
SYMATTR Value 0
TEXT -192 440 Left 2 !.dc V_BB 0 5 0.1
