Version 4.1
SHEET 1 880 680
WIRE 448 -160 112 -160
WIRE 112 -112 112 -160
WIRE 112 -112 -16 -112
WIRE 240 -112 112 -112
WIRE -16 -64 -16 -112
WIRE 240 -64 240 -112
WIRE 240 96 240 16
WIRE 448 112 448 -160
WIRE -16 144 -16 16
WIRE 176 144 -16 144
WIRE -16 272 -16 144
WIRE 240 272 240 192
WIRE -16 416 -16 352
WIRE 112 416 -16 416
WIRE 240 416 240 352
WIRE 240 416 112 416
WIRE 112 464 112 416
WIRE 448 464 448 192
WIRE 448 464 112 464
WIRE 112 496 112 464
FLAG 112 496 0
SYMBOL npn 176 96 R0
SYMATTR InstName Q1
SYMATTR Value 2N3904
SYMBOL res -32 -80 R0
SYMATTR InstName R1
SYMATTR Value 51k
SYMBOL res -32 256 R0
SYMATTR InstName R2
SYMATTR Value 9.1k
SYMBOL res 224 256 R0
SYMATTR InstName R_E
SYMATTR Value 180
SYMBOL res 224 -80 R0
SYMATTR InstName R_C
SYMATTR Value 1.37k
SYMBOL voltage 448 96 R0
SYMATTR InstName V_CC
SYMATTR Value 15
TEXT -32 520 Left 2 !.tran 5m
