Version 4.1
SHEET 1 1912 680
WIRE 176 -64 -144 -64
WIRE -272 16 -528 16
WIRE 64 32 16 32
WIRE 176 32 176 -64
WIRE 176 32 128 32
WIRE 224 32 176 32
WIRE 368 32 288 32
WIRE 464 32 448 32
WIRE 464 80 464 32
WIRE 464 80 336 80
WIRE 16 96 16 32
WIRE 16 96 -48 96
WIRE 336 96 336 80
WIRE 400 96 336 96
WIRE 544 96 400 96
WIRE -528 144 -528 16
WIRE -272 144 -272 16
WIRE -144 144 -144 -64
WIRE 400 160 400 96
WIRE 544 160 544 96
WIRE 16 176 16 96
WIRE 64 176 16 176
WIRE 176 176 128 176
WIRE 224 176 176 176
WIRE 336 176 336 96
WIRE 336 176 288 176
WIRE -528 320 -528 224
WIRE -272 320 -272 224
WIRE -272 320 -528 320
WIRE -48 320 -48 96
WIRE 400 320 400 240
WIRE 400 320 -48 320
WIRE 544 320 544 224
WIRE 544 320 400 320
WIRE 400 352 400 320
WIRE -528 368 -528 320
WIRE -144 384 -144 224
WIRE 176 384 176 176
WIRE 176 384 -144 384
FLAG -528 368 0
FLAG 400 352 0
SYMBOL diode 64 48 R270
WINDOW 0 32 32 VTop 2
WINDOW 3 0 32 VBottom 2
SYMATTR InstName D2
SYMATTR Value 1N4007
SYMBOL diode 224 48 R270
WINDOW 0 32 32 VTop 2
WINDOW 3 0 32 VBottom 2
SYMATTR InstName D3
SYMATTR Value 1N4007
SYMBOL diode 224 192 R270
WINDOW 0 32 32 VTop 2
WINDOW 3 0 32 VBottom 2
SYMATTR InstName D1
SYMATTR Value 1N4007
SYMBOL diode 64 192 R270
WINDOW 0 32 32 VTop 2
WINDOW 3 0 32 VBottom 2
SYMATTR InstName D4
SYMATTR Value 1N4007
SYMBOL res 384 144 R0
SYMATTR InstName RL
SYMATTR Value 10k
SYMATTR SpiceLine tol=10
SYMBOL cap 528 160 R0
SYMATTR InstName C1
SYMATTR Value 10µ
SYMBOL voltage -528 128 R0
WINDOW 3 -141 128 Left 2
WINDOW 123 0 0 Left 0
WINDOW 39 -141 156 Left 2
SYMATTR Value SINE(0 220 50 0 0 0 10)
SYMATTR SpiceLine Rser=0.1m
SYMATTR InstName Vin
SYMBOL ind -288 128 R0
WINDOW 0 -56 40 Left 2
WINDOW 3 -78 79 Left 2
SYMATTR InstName L1
SYMATTR Value 50m
SYMATTR Type ind
SYMBOL ind -128 240 R180
WINDOW 0 -34 87 Left 2
WINDOW 3 -67 32 Left 2
SYMATTR InstName L2
SYMATTR Value 1.75m
SYMATTR Type ind
SYMBOL res 464 16 R90
WINDOW 0 0 56 VBottom 2
WINDOW 3 32 56 VTop 2
SYMATTR InstName R1
SYMATTR Value 2.2
TEXT -256 256 Left 2 !K L1 L2 1
TEXT -664 392 Left 2 !.tran 40m
